<routes>
	<vType id="average_car" vClass="passenger" accel="3" decel="4.5" minGap="2.5" maxSpeed="45" />
            
    <route id="W1_HN" edges="we1 we2 we3 we4 hwn" />
    <route id="N1_HN" edges="int1ns1 we2 we3 we4 hwn" />
    <route id="S1_HN" edges="int1sn1 we2 we3 we4 hwn" />
    <route id="N2_HN" edges="int2ns1 we3 we4 hwn" />
    <route id="S2_HN" edges="int2sn1 we3 we4 hwn" />
    <route id="W1_HS" edges="we1 we2 we3 se1 hws" />
    <route id="N1_HS" edges="int1ns1 we2 we3 se1 hws" />
    <route id="S1_HS" edges="int1sn1 we2 we3 se1 hws" />
    <route id="N2_HS" edges="int2ns1 we3 se1 hws" />
    <route id="S2_HS" edges="int2sn1 we3 se1 hws" />
    <route id="W1_N2" edges="we1 we2 int2sn2" />
    <route id="N1_N2" edges="int1ns1 we2 int2sn2" />
    <route id="S1_N2" edges="int1sn1 we2 int2sn2" />
    <route id="S2_N2" edges="int2sn1 int2sn2" />
    <route id="HN_N2" edges="-hwn ew1 ew2 int2sn2" />
    <route id="HS_N2" edges="-hws nw1 ew2 int2sn2" />
    <route id="W1_S2" edges="we1 we2 int2ns2" />
    <route id="N1_S2" edges="int1ns1 we2 int2ns2" />
    <route id="S1_S2" edges="int1sn1 we2 int2ns2" />
    <route id="N2_S2" edges="int2ns1 int2ns2" />
    <route id="HN_S2" edges="-hwn ew1 ew2 int2ns2" />
    <route id="HS_S2" edges="-hws nw1 ew2 int2ns2" />
    <route id="W1_N1" edges="we1 int1sn2" />
    <route id="S1_N1" edges="int1sn1 int1sn2" />
    <route id="N2_N1" edges="int2ns1 ew3 int1sn2" />
    <route id="S2_N1" edges="int2sn1 ew3 int1sn2" />
    <route id="HN_N1" edges="-hwn ew1 ew2 ew3 int1sn2" />
    <route id="HS_N1" edges="-hws nw1 ew2 ew3 int1sn2" />
    <route id="W1_S1" edges="we1 int1ns2" />
    <route id="N1_S1" edges="int1ns1 int1ns2" />
    <route id="N2_S1" edges="int2ns1 ew3 int1ns2" />
    <route id="S2_S1" edges="int2sn1 ew3 int1ns2" />
    <route id="HN_S1" edges="-hwn ew1 ew2 ew3 int1ns2" />
    <route id="HS_S1" edges="-hws nw1 ew2 ew3 int1ns2" />
    <route id="N1_W1" edges="int1ns1 ew4" />
    <route id="S1_W1" edges="int1sn1 ew4" />
    <route id="N2_W1" edges="int2ns1 ew3 ew4" />
    <route id="S2_W1" edges="int2sn1 ew3 ew4" />
    <route id="HN_W1" edges="-hwn ew1 ew2 ew3 ew4" />
    <route id="HS_W1" edges="-hws nw1 ew2 ew3 ew4" />
    <vehicle id="N1_S1_0" type="average_car" route="N1_S1" depart="0" departLane="random" />
    <vehicle id="N1_W1_1" type="average_car" route="N1_W1" depart="1" departLane="random" />
    <vehicle id="S1_S2_2" type="average_car" route="S1_S2" depart="1" departLane="random" />
    <vehicle id="HN_S2_3" type="average_car" route="HN_S2" depart="3" departLane="random" />
    <vehicle id="N1_W1_4" type="average_car" route="N1_W1" depart="4" departLane="random" />
    <vehicle id="N2_S2_5" type="average_car" route="N2_S2" depart="7" departLane="random" />
    <vehicle id="W1_S1_6" type="average_car" route="W1_S1" depart="8" departLane="random" />
    <vehicle id="HS_N1_7" type="average_car" route="HS_N1" depart="11" departLane="random" />
    <vehicle id="N1_S1_8" type="average_car" route="N1_S1" depart="14" departLane="random" />
    <vehicle id="S1_HN_9" type="average_car" route="S1_HN" depart="14" departLane="random" />
    <vehicle id="W1_HS_10" type="average_car" route="W1_HS" depart="17" departLane="random" />
    <vehicle id="HS_S1_11" type="average_car" route="HS_S1" depart="20" departLane="random" />
    <vehicle id="N1_S1_12" type="average_car" route="N1_S1" depart="24" departLane="random" />
    <vehicle id="N2_S2_13" type="average_car" route="N2_S2" depart="24" departLane="random" />
    <vehicle id="W1_HN_14" type="average_car" route="W1_HN" depart="26" departLane="random" />
    <vehicle id="W1_N1_15" type="average_car" route="W1_N1" depart="28" departLane="random" />
    <vehicle id="N1_N2_16" type="average_car" route="N1_N2" depart="30" departLane="random" />
    <vehicle id="N1_S1_17" type="average_car" route="N1_S1" depart="31" departLane="random" />
    <vehicle id="S1_N1_18" type="average_car" route="S1_N1" depart="37" departLane="random" />
    <vehicle id="W1_HS_19" type="average_car" route="W1_HS" depart="37" departLane="random" />
    <vehicle id="N2_S2_20" type="average_car" route="N2_S2" depart="39" departLane="random" />
    <vehicle id="W1_N1_21" type="average_car" route="W1_N1" depart="41" departLane="random" />
    <vehicle id="N2_W1_22" type="average_car" route="N2_W1" depart="43" departLane="random" />
    <vehicle id="W1_S1_23" type="average_car" route="W1_S1" depart="44" departLane="random" />
    <vehicle id="S2_S1_24" type="average_car" route="S2_S1" depart="48" departLane="random" />
    <vehicle id="W1_S1_25" type="average_car" route="W1_S1" depart="49" departLane="random" />
    <vehicle id="HN_W1_26" type="average_car" route="N2_W1" depart="50" departLane="random" />
    <vehicle id="N2_W1_27" type="average_car" route="N2_W1" depart="52" departLane="random" />
    <vehicle id="W1_S1_28" type="average_car" route="W1_S1" depart="52" departLane="random" />
    <vehicle id="W1_S1_29" type="average_car" route="W1_S1" depart="54" departLane="random" />
    <vehicle id="S1_S2_30" type="average_car" route="S1_S2" depart="55" departLane="random" />
    <vehicle id="N1_S1_31" type="average_car" route="N1_S1" depart="58" departLane="random" />
    <vehicle id="S1_N1_32" type="average_car" route="S1_N1" depart="63" departLane="random" />
    <vehicle id="N2_S2_33" type="average_car" route="N2_S2" depart="77" departLane="random" />
    <vehicle id="N2_W1_34" type="average_car" route="N2_W1" depart="78" departLane="random" />
    <vehicle id="HN_S1_35" type="average_car" route="HN_S1" depart="79" departLane="random" />
    <vehicle id="N1_S1_36" type="average_car" route="N1_S1" depart="81" departLane="random" />
    <vehicle id="HN_N2_37" type="average_car" route="HN_N2" depart="81" departLane="random" />
    <vehicle id="N2_S2_38" type="average_car" route="N2_S2" depart="81" departLane="random" />
    <vehicle id="S2_HN_39" type="average_car" route="S2_HN" depart="89" departLane="random" />
    <vehicle id="HN_N1_40" type="average_car" route="HN_N1" depart="91" departLane="random" />
    <vehicle id="N2_S2_41" type="average_car" route="N2_S2" depart="91" departLane="random" />
    <vehicle id="N1_S1_42" type="average_car" route="N1_S1" depart="96" departLane="random" />
    <vehicle id="HN_N2_43" type="average_car" route="HN_N2" depart="98" departLane="random" />
    <vehicle id="W1_S2_44" type="average_car" route="W1_S2" depart="100" departLane="random" />
    <vehicle id="S1_S2_45" type="average_car" route="S1_S2" depart="105" departLane="random" />
    <vehicle id="S1_N1_46" type="average_car" route="S1_N1" depart="107" departLane="random" />
    <vehicle id="S1_N1_47" type="average_car" route="S1_N1" depart="108" departLane="random" />
    <vehicle id="W1_HN_48" type="average_car" route="W1_HN" depart="110" departLane="random" />
    <vehicle id="N1_S1_49" type="average_car" route="N1_S1" depart="111" departLane="random" />
    <vehicle id="N2_W1_50" type="average_car" route="N2_W1" depart="113" departLane="random" />
    <vehicle id="W1_HS_51" type="average_car" route="W1_HS" depart="116" departLane="random" />
    <vehicle id="S1_N1_52" type="average_car" route="S1_N1" depart="119" departLane="random" />
    <vehicle id="W1_HS_53" type="average_car" route="W1_HS" depart="119" departLane="random" />
    <vehicle id="HN_S1_54" type="average_car" route="HN_S1" depart="122" departLane="random" />
    <vehicle id="HN_N2_55" type="average_car" route="HN_N2" depart="130" departLane="random" />
    <vehicle id="N1_S1_56" type="average_car" route="N1_S1" depart="135" departLane="random" />
    <vehicle id="N1_W1_57" type="average_car" route="N1_W1" depart="136" departLane="random" />
    <vehicle id="W1_S2_58" type="average_car" route="W1_S2" depart="136" departLane="random" />
    <vehicle id="S2_W1_59" type="average_car" route="N2_W1" depart="139" departLane="random" />
    <vehicle id="N1_S1_60" type="average_car" route="N1_S1" depart="141" departLane="random" />
    <vehicle id="N1_S1_61" type="average_car" route="N1_S1" depart="144" departLane="random" />
    <vehicle id="W1_HS_62" type="average_car" route="W1_HS" depart="144" departLane="random" />
    <vehicle id="N2_N1_63" type="average_car" route="N2_N1" depart="147" departLane="random" />
    <vehicle id="N2_W1_64" type="average_car" route="N2_W1" depart="150" departLane="random" />
    <vehicle id="W1_HN_65" type="average_car" route="W1_HN" depart="152" departLane="random" />
    <vehicle id="N2_W1_66" type="average_car" route="N2_W1" depart="165" departLane="random" />
    <vehicle id="HN_W1_67" type="average_car" route="N2_W1" depart="175" departLane="random" />
    <vehicle id="W1_N2_68" type="average_car" route="W1_N2" depart="177" departLane="random" />
    <vehicle id="W1_N1_69" type="average_car" route="W1_N1" depart="179" departLane="random" />
    <vehicle id="N2_S2_70" type="average_car" route="N2_S2" depart="182" departLane="random" />
    <vehicle id="N1_W1_71" type="average_car" route="N1_W1" depart="183" departLane="random" />
    <vehicle id="S1_N1_72" type="average_car" route="S1_N1" depart="183" departLane="random" />
    <vehicle id="S1_N1_73" type="average_car" route="S1_N1" depart="185" departLane="random" />
    <vehicle id="N1_S1_74" type="average_car" route="N1_S1" depart="187" departLane="random" />
    <vehicle id="S1_W1_75" type="average_car" route="N1_W1" depart="191" departLane="random" />
    <vehicle id="N1_S1_76" type="average_car" route="N1_S1" depart="192" departLane="random" />
    <vehicle id="W1_HN_77" type="average_car" route="W1_HN" depart="195" departLane="random" />
    <vehicle id="S1_N1_78" type="average_car" route="S1_N1" depart="198" departLane="random" />
    <vehicle id="N2_W1_79" type="average_car" route="N2_W1" depart="199" departLane="random" />
    <vehicle id="S1_N1_80" type="average_car" route="S1_N1" depart="202" departLane="random" />
    <vehicle id="W1_S1_81" type="average_car" route="W1_S1" depart="202" departLane="random" />
    <vehicle id="N2_S2_82" type="average_car" route="N2_S2" depart="204" departLane="random" />
    <vehicle id="N2_N1_83" type="average_car" route="N2_N1" depart="206" departLane="random" />
    <vehicle id="W1_S1_84" type="average_car" route="W1_S1" depart="208" departLane="random" />
    <vehicle id="N1_S2_85" type="average_car" route="N1_S2" depart="209" departLane="random" />
    <vehicle id="N2_S2_86" type="average_car" route="N2_S2" depart="210" departLane="random" />
    <vehicle id="HN_S2_87" type="average_car" route="HN_S2" depart="217" departLane="random" />
    <vehicle id="N2_N1_88" type="average_car" route="N2_N1" depart="219" departLane="random" />
    <vehicle id="HN_N2_89" type="average_car" route="HN_N2" depart="223" departLane="random" />
    <vehicle id="HN_W1_90" type="average_car" route="N2_W1" depart="226" departLane="random" />
    <vehicle id="W1_HS_91" type="average_car" route="W1_HS" depart="229" departLane="random" />
    <vehicle id="N1_S1_92" type="average_car" route="N1_S1" depart="230" departLane="random" />
    <vehicle id="W1_N1_93" type="average_car" route="W1_N1" depart="239" departLane="random" />
    <vehicle id="HN_N2_94" type="average_car" route="HN_N2" depart="241" departLane="random" />
    <vehicle id="S1_N1_95" type="average_car" route="S1_N1" depart="244" departLane="random" />
    <vehicle id="HS_W1_96" type="average_car" route="N2_W1" depart="245" departLane="random" />
    <vehicle id="S1_S2_97" type="average_car" route="S1_S2" depart="249" departLane="random" />
    <vehicle id="W1_S2_98" type="average_car" route="W1_S2" depart="251" departLane="random" />
    <vehicle id="N2_W1_99" type="average_car" route="N2_W1" depart="253" departLane="random" />
    <vehicle id="HN_W1_100" type="average_car" route="N2_W1" depart="254" departLane="random" />
    <vehicle id="W1_S1_101" type="average_car" route="W1_S1" depart="254" departLane="random" />
    <vehicle id="N1_S1_102" type="average_car" route="N1_S1" depart="265" departLane="random" />
    <vehicle id="N1_HS_103" type="average_car" route="N1_HS" depart="269" departLane="random" />
    <vehicle id="N1_W1_104" type="average_car" route="N1_W1" depart="275" departLane="random" />
    <vehicle id="N1_W1_105" type="average_car" route="N1_W1" depart="280" departLane="random" />
    <vehicle id="S1_W1_106" type="average_car" route="N1_W1" depart="281" departLane="random" />
    <vehicle id="W1_HN_107" type="average_car" route="W1_HN" depart="281" departLane="random" />
    <vehicle id="S1_N1_108" type="average_car" route="S1_N1" depart="286" departLane="random" />
    <vehicle id="S1_S2_109" type="average_car" route="S1_S2" depart="288" departLane="random" />
    <vehicle id="W1_S1_110" type="average_car" route="W1_S1" depart="289" departLane="random" />
    <vehicle id="N1_HS_111" type="average_car" route="N1_HS" depart="289" departLane="random" />
    <vehicle id="W1_S1_112" type="average_car" route="W1_S1" depart="291" departLane="random" />
    <vehicle id="HN_S1_113" type="average_car" route="HN_S1" depart="294" departLane="random" />
    <vehicle id="N1_S2_114" type="average_car" route="N1_S2" depart="298" departLane="random" />
    <vehicle id="S1_W1_115" type="average_car" route="N1_W1" depart="299" departLane="random" />
    <vehicle id="W1_N2_116" type="average_car" route="W1_N2" depart="301" departLane="random" />
    <vehicle id="HS_N2_117" type="average_car" route="HS_N2" depart="308" departLane="random" />
    <vehicle id="S2_S1_118" type="average_car" route="S2_S1" depart="312" departLane="random" />
    <vehicle id="S1_N1_119" type="average_car" route="S1_N1" depart="314" departLane="random" />
    <vehicle id="N1_S1_120" type="average_car" route="N1_S1" depart="316" departLane="random" />
    <vehicle id="S2_S1_121" type="average_car" route="S2_S1" depart="318" departLane="random" />
    <vehicle id="S2_S1_122" type="average_car" route="S2_S1" depart="319" departLane="random" />
    <vehicle id="S2_W1_123" type="average_car" route="N2_W1" depart="320" departLane="random" />
    <vehicle id="W1_HN_124" type="average_car" route="W1_HN" depart="320" departLane="random" />
    <vehicle id="HN_W1_125" type="average_car" route="N2_W1" depart="322" departLane="random" />
    <vehicle id="N1_S1_126" type="average_car" route="N1_S1" depart="322" departLane="random" />
    <vehicle id="S1_HN_127" type="average_car" route="S1_HN" depart="324" departLane="random" />
    <vehicle id="W1_S1_128" type="average_car" route="W1_S1" depart="334" departLane="random" />
    <vehicle id="S1_N1_129" type="average_car" route="S1_N1" depart="335" departLane="random" />
    <vehicle id="N2_W1_130" type="average_car" route="N2_W1" depart="340" departLane="random" />
    <vehicle id="S1_N1_131" type="average_car" route="S1_N1" depart="341" departLane="random" />
    <vehicle id="S2_N2_132" type="average_car" route="S2_N2" depart="341" departLane="random" />
    <vehicle id="W1_HS_133" type="average_car" route="W1_HS" depart="342" departLane="random" />
    <vehicle id="HN_N2_134" type="average_car" route="HN_N2" depart="347" departLane="random" />
    <vehicle id="HN_S2_135" type="average_car" route="HN_S2" depart="347" departLane="random" />
    <vehicle id="S2_N2_136" type="average_car" route="S2_N2" depart="348" departLane="random" />
    <vehicle id="HS_W1_137" type="average_car" route="N2_W1" depart="356" departLane="random" />
    <vehicle id="W1_S1_138" type="average_car" route="W1_S1" depart="358" departLane="random" />
    <vehicle id="HN_W1_139" type="average_car" route="N2_W1" depart="364" departLane="random" />
    <vehicle id="S1_N1_140" type="average_car" route="S1_N1" depart="364" departLane="random" />
    <vehicle id="HN_W1_141" type="average_car" route="N2_W1" depart="367" departLane="random" />
    <vehicle id="S1_N1_142" type="average_car" route="S1_N1" depart="371" departLane="random" />
    <vehicle id="HN_W1_143" type="average_car" route="N2_W1" depart="373" departLane="random" />
    <vehicle id="HN_N2_144" type="average_car" route="HN_N2" depart="373" departLane="random" />
    <vehicle id="W1_HN_145" type="average_car" route="W1_HN" depart="373" departLane="random" />
    <vehicle id="S2_S1_146" type="average_car" route="S2_S1" depart="377" departLane="random" />
    <vehicle id="HN_S2_147" type="average_car" route="HN_S2" depart="378" departLane="random" />
    <vehicle id="W1_S1_148" type="average_car" route="W1_S1" depart="380" departLane="random" />
    <vehicle id="N2_S2_149" type="average_car" route="N2_S2" depart="383" departLane="random" />
    <vehicle id="S2_N2_150" type="average_car" route="S2_N2" depart="384" departLane="random" />
    <vehicle id="S2_W1_151" type="average_car" route="N2_W1" depart="388" departLane="random" />
    <vehicle id="S1_N1_152" type="average_car" route="S1_N1" depart="390" departLane="random" />
    <vehicle id="W1_N1_153" type="average_car" route="W1_N1" depart="391" departLane="random" />
    <vehicle id="W1_HN_154" type="average_car" route="W1_HN" depart="391" departLane="random" />
    <vehicle id="W1_S1_155" type="average_car" route="W1_S1" depart="392" departLane="random" />
    <vehicle id="N1_S1_156" type="average_car" route="N1_S1" depart="393" departLane="random" />
    <vehicle id="S2_N2_157" type="average_car" route="S2_N2" depart="393" departLane="random" />
    <vehicle id="HN_N1_158" type="average_car" route="HN_N1" depart="397" departLane="random" />
    <vehicle id="N1_W1_159" type="average_car" route="N1_W1" depart="399" departLane="random" />
    <vehicle id="N2_W1_160" type="average_car" route="N2_W1" depart="401" departLane="random" />
    <vehicle id="N1_N2_161" type="average_car" route="N1_N2" depart="402" departLane="random" />
    <vehicle id="S2_N2_162" type="average_car" route="S2_N2" depart="405" departLane="random" />
    <vehicle id="S1_HN_163" type="average_car" route="S1_HN" depart="407" departLane="random" />
    <vehicle id="N2_N1_164" type="average_car" route="N2_N1" depart="410" departLane="random" />
    <vehicle id="S2_N2_165" type="average_car" route="S2_N2" depart="411" departLane="random" />
    <vehicle id="W1_HN_166" type="average_car" route="W1_HN" depart="413" departLane="random" />
    <vehicle id="N1_S1_167" type="average_car" route="N1_S1" depart="415" departLane="random" />
    <vehicle id="S2_N2_168" type="average_car" route="S2_N2" depart="416" departLane="random" />
    <vehicle id="W1_S2_169" type="average_car" route="W1_S2" depart="416" departLane="random" />
    <vehicle id="S2_HN_170" type="average_car" route="S2_HN" depart="416" departLane="random" />
    <vehicle id="N1_HN_171" type="average_car" route="N1_HN" depart="420" departLane="random" />
    <vehicle id="N1_HS_172" type="average_car" route="N1_HS" depart="421" departLane="random" />
    <vehicle id="N2_W1_173" type="average_car" route="N2_W1" depart="424" departLane="random" />
    <vehicle id="S2_S1_174" type="average_car" route="S2_S1" depart="425" departLane="random" />
    <vehicle id="S1_N1_175" type="average_car" route="S1_N1" depart="432" departLane="random" />
    <vehicle id="HS_S1_176" type="average_car" route="HS_S1" depart="432" departLane="random" />
    <vehicle id="N1_S1_177" type="average_car" route="N1_S1" depart="439" departLane="random" />
    <vehicle id="W1_S2_178" type="average_car" route="W1_S2" depart="439" departLane="random" />
    <vehicle id="N1_S1_179" type="average_car" route="N1_S1" depart="440" departLane="random" />
    <vehicle id="S1_N1_180" type="average_car" route="S1_N1" depart="444" departLane="random" />
    <vehicle id="S2_N2_181" type="average_car" route="S2_N2" depart="444" departLane="random" />
    <vehicle id="W1_HS_182" type="average_car" route="W1_HS" depart="444" departLane="random" />
    <vehicle id="N2_W1_183" type="average_car" route="N2_W1" depart="447" departLane="random" />
    <vehicle id="N2_S2_184" type="average_car" route="N2_S2" depart="447" departLane="random" />
    <vehicle id="S1_N1_185" type="average_car" route="S1_N1" depart="448" departLane="random" />
    <vehicle id="S2_N2_186" type="average_car" route="S2_N2" depart="453" departLane="random" />
    <vehicle id="S2_W1_187" type="average_car" route="N2_W1" depart="457" departLane="random" />
    <vehicle id="N2_S2_188" type="average_car" route="N2_S2" depart="457" departLane="random" />
    <vehicle id="HN_W1_189" type="average_car" route="N2_W1" depart="462" departLane="random" />
    <vehicle id="W1_HS_190" type="average_car" route="W1_HS" depart="462" departLane="random" />
    <vehicle id="W1_HS_191" type="average_car" route="W1_HS" depart="477" departLane="random" />
    <vehicle id="W1_N1_192" type="average_car" route="W1_N1" depart="480" departLane="random" />
    <vehicle id="N2_W1_193" type="average_car" route="N2_W1" depart="481" departLane="random" />
    <vehicle id="W1_S1_194" type="average_car" route="W1_S1" depart="481" departLane="random" />
    <vehicle id="N2_S2_195" type="average_car" route="N2_S2" depart="487" departLane="random" />
    <vehicle id="N1_S1_196" type="average_car" route="N1_S1" depart="488" departLane="random" />
    <vehicle id="S1_N1_197" type="average_car" route="S1_N1" depart="489" departLane="random" />
    <vehicle id="W1_S1_198" type="average_car" route="W1_S1" depart="490" departLane="random" />
    <vehicle id="W1_S2_199" type="average_car" route="W1_S2" depart="491" departLane="random" />
    <vehicle id="N1_W1_200" type="average_car" route="N1_W1" depart="500" departLane="random" />
    <vehicle id="N2_S2_201" type="average_car" route="N2_S2" depart="501" departLane="random" />
    <vehicle id="N1_S1_202" type="average_car" route="N1_S1" depart="503" departLane="random" />
    <vehicle id="S2_S1_203" type="average_car" route="S2_S1" depart="504" departLane="random" />
    <vehicle id="S1_HS_204" type="average_car" route="S1_HS" depart="513" departLane="random" />
    <vehicle id="HS_N2_205" type="average_car" route="HS_N2" depart="520" departLane="random" />
    <vehicle id="W1_S1_206" type="average_car" route="W1_S1" depart="521" departLane="random" />
    <vehicle id="N1_S2_207" type="average_car" route="N1_S2" depart="521" departLane="random" />
    <vehicle id="N2_N1_208" type="average_car" route="N2_N1" depart="523" departLane="random" />
    <vehicle id="S2_W1_209" type="average_car" route="N2_W1" depart="524" departLane="random" />
    <vehicle id="S1_N1_210" type="average_car" route="S1_N1" depart="531" departLane="random" />
    <vehicle id="HN_S1_211" type="average_car" route="HN_S1" depart="541" departLane="random" />
    <vehicle id="HN_S1_212" type="average_car" route="HN_S1" depart="542" departLane="random" />
    <vehicle id="S1_N1_213" type="average_car" route="S1_N1" depart="551" departLane="random" />
    <vehicle id="S2_N2_214" type="average_car" route="S2_N2" depart="553" departLane="random" />
    <vehicle id="HN_S2_215" type="average_car" route="HN_S2" depart="553" departLane="random" />
    <vehicle id="N2_W1_216" type="average_car" route="N2_W1" depart="557" departLane="random" />
    <vehicle id="S2_S1_217" type="average_car" route="S2_S1" depart="557" departLane="random" />
    <vehicle id="N1_W1_218" type="average_car" route="N1_W1" depart="558" departLane="random" />
    <vehicle id="S2_W1_219" type="average_car" route="N2_W1" depart="560" departLane="random" />
    <vehicle id="HN_W1_220" type="average_car" route="N2_W1" depart="564" departLane="random" />
    <vehicle id="HN_N1_221" type="average_car" route="HN_N1" depart="564" departLane="random" />
    <vehicle id="S1_N1_222" type="average_car" route="S1_N1" depart="569" departLane="random" />
    <vehicle id="W1_S1_223" type="average_car" route="W1_S1" depart="570" departLane="random" />
    <vehicle id="W1_HN_224" type="average_car" route="W1_HN" depart="574" departLane="random" />
    <vehicle id="HS_N1_225" type="average_car" route="HS_N1" depart="579" departLane="random" />
    <vehicle id="W1_HS_226" type="average_car" route="W1_HS" depart="580" departLane="random" />
    <vehicle id="W1_HN_227" type="average_car" route="W1_HN" depart="581" departLane="random" />
    <vehicle id="S2_N2_228" type="average_car" route="S2_N2" depart="585" departLane="random" />
    <vehicle id="N1_W1_229" type="average_car" route="N1_W1" depart="587" departLane="random" />
    <vehicle id="N1_S1_230" type="average_car" route="N1_S1" depart="590" departLane="random" />
    <vehicle id="S2_S1_231" type="average_car" route="S2_S1" depart="591" departLane="random" />
    <vehicle id="N2_W1_232" type="average_car" route="N2_W1" depart="597" departLane="random" />
    <vehicle id="S2_N2_233" type="average_car" route="S2_N2" depart="607" departLane="random" />
    <vehicle id="W1_HS_234" type="average_car" route="W1_HS" depart="607" departLane="random" />
    <vehicle id="S2_N2_235" type="average_car" route="S2_N2" depart="608" departLane="random" />
    <vehicle id="W1_HS_236" type="average_car" route="W1_HS" depart="608" departLane="random" />
    <vehicle id="N1_N2_237" type="average_car" route="N1_N2" depart="612" departLane="random" />
    <vehicle id="W1_S1_238" type="average_car" route="W1_S1" depart="613" departLane="random" />
    <vehicle id="W1_HS_239" type="average_car" route="W1_HS" depart="617" departLane="random" />
    <vehicle id="HS_W1_240" type="average_car" route="N2_W1" depart="619" departLane="random" />
    <vehicle id="S1_N1_241" type="average_car" route="S1_N1" depart="621" departLane="random" />
    <vehicle id="S1_HN_242" type="average_car" route="S1_HN" depart="621" departLane="random" />
    <vehicle id="HS_S1_243" type="average_car" route="HS_S1" depart="625" departLane="random" />
    <vehicle id="N1_S1_244" type="average_car" route="N1_S1" depart="627" departLane="random" />
    <vehicle id="N2_W1_245" type="average_car" route="N2_W1" depart="628" departLane="random" />
    <vehicle id="W1_S1_246" type="average_car" route="W1_S1" depart="633" departLane="random" />
    <vehicle id="N2_N1_247" type="average_car" route="N2_N1" depart="644" departLane="random" />
    <vehicle id="W1_S2_248" type="average_car" route="W1_S2" depart="647" departLane="random" />
    <vehicle id="N1_W1_249" type="average_car" route="N1_W1" depart="651" departLane="random" />
    <vehicle id="N1_S1_250" type="average_car" route="N1_S1" depart="651" departLane="random" />
    <vehicle id="S2_HS_251" type="average_car" route="S2_HS" depart="652" departLane="random" />
    <vehicle id="N2_S2_252" type="average_car" route="N2_S2" depart="655" departLane="random" />
    <vehicle id="S2_N2_253" type="average_car" route="S2_N2" depart="657" departLane="random" />
    <vehicle id="N2_S2_254" type="average_car" route="N2_S2" depart="657" departLane="random" />
    <vehicle id="N2_S2_255" type="average_car" route="N2_S2" depart="660" departLane="random" />
    <vehicle id="HS_N1_256" type="average_car" route="HS_N1" depart="664" departLane="random" />
    <vehicle id="HN_N2_257" type="average_car" route="HN_N2" depart="667" departLane="random" />
    <vehicle id="S2_HN_258" type="average_car" route="S2_HN" depart="669" departLane="random" />
    <vehicle id="S1_S2_259" type="average_car" route="S1_S2" depart="670" departLane="random" />
    <vehicle id="S1_W1_260" type="average_car" route="N1_W1" depart="671" departLane="random" />
    <vehicle id="HN_S1_261" type="average_car" route="HN_S1" depart="676" departLane="random" />
    <vehicle id="S1_N2_262" type="average_car" route="S1_N2" depart="678" departLane="random" />
    <vehicle id="S2_W1_263" type="average_car" route="N2_W1" depart="682" departLane="random" />
    <vehicle id="N1_S1_264" type="average_car" route="N1_S1" depart="686" departLane="random" />
    <vehicle id="HS_W1_265" type="average_car" route="N2_W1" depart="688" departLane="random" />
    <vehicle id="HN_N2_266" type="average_car" route="HN_N2" depart="689" departLane="random" />
    <vehicle id="N2_W1_267" type="average_car" route="N2_W1" depart="691" departLane="random" />
    <vehicle id="HN_W1_268" type="average_car" route="N2_W1" depart="693" departLane="random" />
    <vehicle id="N1_S1_269" type="average_car" route="N1_S1" depart="693" departLane="random" />
    <vehicle id="N2_S2_270" type="average_car" route="N2_S2" depart="701" departLane="random" />
    <vehicle id="N1_S1_271" type="average_car" route="N1_S1" depart="703" departLane="random" />
    <vehicle id="W1_N1_272" type="average_car" route="W1_N1" depart="705" departLane="random" />
    <vehicle id="HS_W1_273" type="average_car" route="N2_W1" depart="706" departLane="random" />
    <vehicle id="HN_N2_274" type="average_car" route="HN_N2" depart="716" departLane="random" />
    <vehicle id="S2_N2_275" type="average_car" route="S2_N2" depart="719" departLane="random" />
    <vehicle id="W1_N2_276" type="average_car" route="W1_N2" depart="721" departLane="random" />
    <vehicle id="HS_N2_277" type="average_car" route="HS_N2" depart="724" departLane="random" />
    <vehicle id="N1_S2_278" type="average_car" route="N1_S2" depart="724" departLane="random" />
    <vehicle id="W1_S2_279" type="average_car" route="W1_S2" depart="729" departLane="random" />
    <vehicle id="HS_N1_280" type="average_car" route="HS_N1" depart="730" departLane="random" />
    <vehicle id="HN_S1_281" type="average_car" route="HN_S1" depart="730" departLane="random" />
    <vehicle id="HN_N2_282" type="average_car" route="HN_N2" depart="732" departLane="random" />
    <vehicle id="S2_HS_283" type="average_car" route="S2_HS" depart="733" departLane="random" />
    <vehicle id="S1_N1_284" type="average_car" route="S1_N1" depart="734" departLane="random" />
    <vehicle id="W1_HS_285" type="average_car" route="W1_HS" depart="736" departLane="random" />
    <vehicle id="HS_W1_286" type="average_car" route="N2_W1" depart="739" departLane="random" />
    <vehicle id="S1_S2_287" type="average_car" route="S1_S2" depart="739" departLane="random" />